<?xml version="1.0" encoding="UTF-8"?>

<net version="1.9" junctionCornerDetail="5" limitTurnSpeed="5.50" xmlns:xsi="http://www.w3.org/2001/XMLSchema-instance" xsi:noNamespaceSchemaLocation="http://sumo.dlr.de/xsd/net_file.xsd">

    <location netOffset="0.00,0.00" convBoundary="-800.00,700.00,300.00,800.10" origBoundary="-10000000000.00,-10000000000.00,10000000000.00,10000000000.00" projParameter="!"/>

    <!-- Internal edges -->
    <edge id=":J1_0" function="internal">
        <lane id=":J1_0_0" index="0" speed="6.53" length="9.11" shape="-707.20,795.29 -704.74,794.94 -702.99,793.87 -701.94,792.09 -701.59,789.60"/>
    </edge>
    <edge id=":J2_0" function="internal">
        <lane id=":J2_0_0" index="0" speed="3.95" length="2.66" shape="-701.50,700.10 -701.40,699.35 -701.10,698.82 -700.60,698.51 -699.90,698.40"/>
    </edge>
    <edge id=":J3_0" function="internal">
        <lane id=":J3_0_0" index="0" speed="3.86" length="2.50" shape="-600.00,698.50 -599.30,698.59 -598.80,698.88 -598.50,699.34 -598.40,700.00"/>
    </edge>
    <edge id=":J4_0" function="internal">
        <lane id=":J4_0_0" index="0" speed="6.51" length="9.03" shape="-598.40,789.60 -598.05,792.05 -597.00,793.80 -595.25,794.85 -592.80,795.20"/>
    </edge>

    <!-- Main edges -->
    <edge id="E1" from="J1" to="J2" priority="-1" shape="-700.00,800.00 -699.90,700.10">
        <lane id="E1_0" index="0" speed="13.89" length="89.50" shape="-701.59,789.60 -701.50,700.10"/>
    </edge>
    <edge id="E2" from="J2" to="J3" priority="-1" shape="-700.00,700.00 -599.90,700.10">
        <lane id="E2_0" index="0" speed="13.89" length="99.90" shape="-699.90,698.40 -600.00,698.50"/>
    </edge>
    <edge id="E3" from="J3" to="J4" priority="-1">
        <lane id="E3_0" index="0" speed="13.89" length="89.60" shape="-598.40,700.00 -598.40,789.60"/>
    </edge>
    <edge id="destination" from="J4" to="J5" priority="-1" shape="-600.00,800.00 -500.00,800.00">
        <lane id="destination_0" index="0" speed="13.89" length="92.80" shape="-592.80,795.20 -500.00,795.20"/>
    </edge>
    <edge id="origin" from="J0" to="J1" priority="-1" shape="-800.00,800.00 -699.90,800.10">
        <lane id="origin_0" index="0" speed="13.89" length="92.80" shape="-800.00,795.20 -707.20,795.29"/>
    </edge>
    <edge id="E4" from="J5" to="J0" priority="-1" shape="-500.00,800.00 -800.00,800.00">
        <lane id="E4_0" index="0" speed="13.89" length="300.00" shape="-500.00,795.20 -800.00,795.20"/>
    </edge>

    <!-- Junctions -->
    <junction id="J0" type="dead_end" x="-800.00" y="800.00" incLanes="E4_0" intLanes=""/>
    <junction id="J1" type="priority" x="-700.00" y="800.00" incLanes="origin_0" intLanes=""/>
    <junction id="J2" type="priority" x="-700.00" y="700.00" incLanes="E1_0" intLanes=""/>
    <junction id="J3" type="priority" x="-600.00" y="700.00" incLanes="E2_0" intLanes=""/>
    <junction id="J4" type="priority" x="-600.00" y="800.00" incLanes="E3_0" intLanes=""/>
    <junction id="J5" type="dead_end" x="-500.00" y="800.00" incLanes="destination_0" intLanes=""/>

    <!-- Connections -->
    <connection from="origin" to="E1" fromLane="0" toLane="0" dir="s" state="M"/>
    <connection from="E1" to="E2" fromLane="0" toLane="0" dir="s" state="M"/>
    <connection from="E2" to="E3" fromLane="0" toLane="0" dir="s" state="M"/>
    <connection from="E3" to="destination" fromLane="0" toLane="0" dir="s" state="M"/>
    <connection from="destination" to="E4" fromLane="0" toLane="0" dir="s" state="M"/>
    <connection from="E4" to="origin" fromLane="0" toLane="0" dir="s" state="M"/>

</net>
