<?xml version="1.0" encoding="UTF-8"?>

<!-- generated on 2025-04-06 18:19:03 by Eclipse SUMO duarouter Version 1.22.0
<duarouterConfiguration xmlns:xsi="http://www.w3.org/2001/XMLSchema-instance" xsi:noNamespaceSchemaLocation="http://sumo.dlr.de/xsd/duarouterConfiguration.xsd">

    <input>
        <net-file value="net.net.xml"/>
        <route-files value="modified_routes.rou.xml"/>
    </input>

    <output>
        <output-file value="modified_routes2.rou.xml"/>
    </output>

    <processing>
        <repair value="true"/>
    </processing>

</duarouterConfiguration>
-->

<routes xmlns:xsi="http://www.w3.org/2001/XMLSchema-instance" xsi:noNamespaceSchemaLocation="http://sumo.dlr.de/xsd/routes_file.xsd">
    <vType id="aggressive" accel="3.5" decel="8.0" speedFactor="1.5" speedDev="0.1" color="255,0,0"/>
    <vehicle id="0" depart="0.00" departSpeed="max">
        <route edges="-E0 E0 E1 E8 -E3 -E2 E2 E3 -E3 -E2 E9 E4 E5 -E5 -E4 -E9 E2 E3 -E3 -E2 E2 E3 -E8 -E1 E1 E8 -E3 -E2 E2 E3 -E3 -E2 E9 E4 E5 -E5 -E4 -E9 E2 E3 -E3 -E2 E2 E3 -E8 -E1"/>
    </vehicle>
    <vehicle id="1" depart="0.00" departSpeed="max">
        <route edges="E10 -E4 -E9 E9 E4 -E10 -E7 E1 E8 -E3 -E7 E7 -E7 -E0 E6 E9 E4 E5 -E11 -E3 -E2 E9 E4 E5 -E11 -E3 -E2 -E6"/>
    </vehicle>
    <vehicle id="2" depart="10.00" departSpeed="max">
        <route edges="E6 -E6 E0 E1 E8 -E3 -E2 E9 -E9 E9 E4 -E10 -E7 E7"/>
    </vehicle>
    <vehicle id="3" depart="10.00" departSpeed="max">
        <route edges="E3 -E3 -E7 -E0 E6 E2 E3 E11 -E5 -E4 E4 E5 -E11 E11"/>
    </vehicle>
    <vehicle id="4" depart="20.00" departSpeed="max">
        <route edges="E5 -E5 -E10 E10 -E10 -E2 E2 E3 -E8 -E1 -E0 E6 E2 E3"/>
    </vehicle>
    <vehicle id="5" depart="20.00" departSpeed="max">
        <route edges="E1 E8 -E3 -E2 E2 -E2 E9 E4 -E10 -E7 -E0 E6 -E6 E0 E1 E8 -E3 E10 E5 -E11 -E3 -E2"/>
    </vehicle>
    <vehicle id="6" depart="30.00" departSpeed="max">
        <route edges="E11 -E5 -E4 -E9 E2 E10 -E10 -E7 -E0 E0"/>
    </vehicle>
    <vehicle id="7" depart="30.00" departSpeed="max">
        <route edges="-E2 -E6 E0 -E0 E0 E1 E8 -E3 E3 -E3 E10 E5 -E11 -E3 E10 -E10 E3 -E8 E8 -E3"/>
    </vehicle>
    <vehicle id="8" depart="40.00" departSpeed="max">
        <route edges="E9 -E9 E2 E10 E5 -E11 -E3 -E2 E9 E4 -E10 -E7 -E0 E6 -E6 E0 E1"/>
    </vehicle>
    <vehicle id="9" depart="40.00" departSpeed="max">
        <route edges="-E4 -E9 E2 E3 E11 -E5 -E10 E10 -E4 -E9 E9 E4 -E10 -E7 E1 E8 -E3 -E7 E7 -E2 -E6 E0 E1 E8 -E3 -E7 -E0 E6 -E6"/>
    </vehicle>
    <vehicle id="10" depart="50.00" departSpeed="max">
        <route edges="-E8 -E1 -E0 E0 -E0 E6 E2 E3 E11 -E5 -E10 E3 -E3 -E2 E2 E3 -E8 -E1 E7 E10 -E4 -E9"/>
    </vehicle>
    <vehicle id="11" depart="50.00" departSpeed="max">
        <route edges="E6 -E6 E0 E7 -E2 E2 E3 E11 -E5 -E4 E4 E5 -E5 -E4 -E9 -E6"/>
    </vehicle>
    <vehicle id="12" depart="60.00" departSpeed="max">
        <route edges="E4 E5 -E11 -E8 -E1 -E0 E6 -E6 E0 E7 E10 -E4 -E9 E2 E3 -E3 -E2 -E6 E0 E1 E8 -E3 E10"/>
    </vehicle>
    <vehicle id="13" type="aggressive" depart="60.00" departSpeed="max">
        <route edges="-E10 E3 E11 -E5 -E4 -E9 E2 E10 E5"/>
    </vehicle>
    <vehicle id="14" depart="70.00" departSpeed="max">
        <route edges="-E1 E7 E10 -E10 -E2 E2 E3 -E3 -E2 E9 E4 E5 -E11 E11 -E5 -E10 -E7 -E0 E6"/>
    </vehicle>
    <vehicle id="15" depart="70.00" departSpeed="max">
        <route edges="E0 E1 E8 -E8 -E1 E7 E10 -E4 -E9 E2 E10 -E10 -E7 E7 -E2 E9 E4 -E4 -E9 E2 -E2 -E6"/>
    </vehicle>
    <vehicle id="16" depart="80.00" departSpeed="max">
        <route edges="-E2 E2 E3 -E3 -E2 E9 E4 E5 -E11 -E8 -E1 -E0 E6 -E6 E0 E7 -E7 E1 E8 -E3 -E2 E9 E4 -E4 -E9 E2 E3 -E3"/>
    </vehicle>
    <vehicle id="17" depart="80.00" departSpeed="max">
        <route edges="E2 -E7 -E0 E0 E1 E8 -E3 -E7 -E0 E6 -E6 E0 E1 E8 E11 -E5 -E4 E4 -E10 E10"/>
    </vehicle>
    <vehicle id="18" depart="90.00" departSpeed="max">
        <route edges="-E5 -E10 -E2 -E6 E0 E1 E8 -E3 E10 -E4 -E9 E2 E3 -E3"/>
    </vehicle>
    <vehicle id="19" depart="90.00" departSpeed="max">
        <route edges="E9 E4 -E4 -E9 E2 E3 E11 -E5 -E4 -E9 -E6 E0 E7 -E2 E2 E3 E11 -E11 -E3 E3 -E8 -E1"/>
    </vehicle>
</routes>
