<?xml version="1.0" encoding="UTF-8"?>

<!-- generated on 2025-04-06 17:26:19 by Eclipse SUMO netedit Version 1.22.0
-->

<additional xmlns:xsi="http://www.w3.org/2001/XMLSchema-instance" xsi:noNamespaceSchemaLocation="http://sumo.dlr.de/xsd/additional_file.xsd">
    <!-- Shapes -->
    <!-- <poi id="poi_0" type="sensor_unit" color="blue" layer="202.00" x="0.98" y="48.96"/> -->
    <poi id="poi_0" type="sensor_unit" color="blue" layer="202.00" x="50.09" y="49.60"/>
</additional>
