<?xml version="1.0" encoding="UTF-8"?>

<!-- generated on 2025-01-23 21:08:55 by Eclipse SUMO duarouter Version v1_21_0+1714-ba69ac25aab
<duarouterConfiguration xmlns:xsi="http://www.w3.org/2001/XMLSchema-instance" xsi:noNamespaceSchemaLocation="http://sumo.dlr.de/xsd/duarouterConfiguration.xsd">

    <input>
        <net-file value="network.net.xml"/>
        <route-files value="trips.xml"/>
    </input>

    <output>
        <output-file value="route.rou.xml"/>
    </output>

    <processing>
        <repair value="true"/>
    </processing>

    <defaults>
        <departspeed value="max"/>
    </defaults>

</duarouterConfiguration>
-->

<routes xmlns:xsi="http://www.w3.org/2001/XMLSchema-instance" xsi:noNamespaceSchemaLocation="http://sumo.dlr.de/xsd/routes_file.xsd">
    <vehicle id="0" depart="0.00" departSpeed="max">
        <route edges="E5"/>
    </vehicle>
    <vehicle id="1" depart="4.00" departSpeed="max">
        <route edges="-E9 E2 E10 -E4"/>
    </vehicle>
    <vehicle id="2" depart="8.00" departSpeed="max">
        <route edges="-E0 E6 E2 E3 E11"/>
    </vehicle>
    <vehicle id="3" depart="12.00" departSpeed="max">
        <route edges="-E9 E9 E4"/>
    </vehicle>
    <vehicle id="4" depart="16.00" departSpeed="max">
        <route edges="-E6 E0 E7 -E2 E9 E4"/>
    </vehicle>
    <vehicle id="5" depart="20.00" departSpeed="max">
        <route edges="-E4 E4 E5"/>
    </vehicle>
    <vehicle id="6" depart="24.00" departSpeed="max">
        <route edges="E3 -E3 -E7"/>
    </vehicle>
    <vehicle id="7" depart="28.00" departSpeed="max">
        <route edges="E0 E7 -E2 E2"/>
    </vehicle>
    <vehicle id="8" depart="32.00" departSpeed="max">
        <route edges="-E2 -E6 E0 E1"/>
    </vehicle>
    <vehicle id="9" depart="36.00" departSpeed="max">
        <route edges="E5 -E5 -E4"/>
    </vehicle>
    <vehicle id="10" depart="40.00" departSpeed="max">
        <route edges="E5 -E11 -E3 -E2 E2"/>
    </vehicle>
    <vehicle id="11" depart="44.00" departSpeed="max">
        <route edges="E6 -E6"/>
    </vehicle>
    <vehicle id="12" depart="48.00" departSpeed="max">
        <route edges="-E10 E10 E5"/>
    </vehicle>
    <vehicle id="13" depart="52.00" departSpeed="max">
        <route edges="E5 -E11 -E8"/>
    </vehicle>
    <vehicle id="14" depart="56.00" departSpeed="max">
        <route edges="-E10 -E2"/>
    </vehicle>
    <vehicle id="15" depart="60.00" departSpeed="max">
        <route edges="E11 -E5 -E4"/>
    </vehicle>
    <vehicle id="16" depart="64.00" departSpeed="max">
        <route edges="E8 -E3 E10"/>
    </vehicle>
    <vehicle id="17" depart="68.00" departSpeed="max">
        <route edges="-E2 E2 E3 E11"/>
    </vehicle>
    <vehicle id="18" depart="72.00" departSpeed="max">
        <route edges="-E6 E0 E1 E8"/>
    </vehicle>
    <vehicle id="19" depart="76.00" departSpeed="max">
        <route edges="E7 -E2 -E6 E0"/>
    </vehicle>
    <vehicle id="20" depart="80.00" departSpeed="max">
        <route edges="E11 -E5 -E4 -E9 E2"/>
    </vehicle>
    <vehicle id="21" depart="84.00" departSpeed="max">
        <route edges="E5 -E11 -E3 -E2 E9"/>
    </vehicle>
    <vehicle id="22" depart="88.00" departSpeed="max">
        <route edges="-E0 E6 -E6"/>
    </vehicle>
    <vehicle id="23" depart="92.00" departSpeed="max">
        <route edges="E10 E5 -E5"/>
    </vehicle>
    <vehicle id="24" depart="96.00" departSpeed="max">
        <route edges="E10 -E10"/>
    </vehicle>
    <vehicle id="25" depart="100.00" departSpeed="max">
        <route edges="E7 -E2 -E6 E0"/>
    </vehicle>
    <vehicle id="26" depart="104.00" departSpeed="max">
        <route edges="-E10 E3 E11"/>
    </vehicle>
    <vehicle id="27" depart="108.00" departSpeed="max">
        <route edges="-E5 -E10 -E2"/>
    </vehicle>
    <vehicle id="28" depart="112.00" departSpeed="max">
        <route edges="-E9 E2 E10 E5 -E11"/>
    </vehicle>
    <vehicle id="29" depart="116.00" departSpeed="max">
        <route edges="-E3 -E7 -E0 E6"/>
    </vehicle>
    <vehicle id="30" depart="120.00" departSpeed="max">
        <route edges="E2 -E7 -E0"/>
    </vehicle>
    <vehicle id="31" depart="124.00" departSpeed="max">
        <route edges="E4 -E10 -E7 -E0"/>
    </vehicle>
    <vehicle id="32" depart="128.00" departSpeed="max">
        <route edges="-E5 -E10 -E7 E7"/>
    </vehicle>
    <vehicle id="33" depart="132.00" departSpeed="max">
        <route edges="E10 E5 -E5"/>
    </vehicle>
    <vehicle id="34" depart="136.00" departSpeed="max">
        <route edges="-E7"/>
    </vehicle>
    <vehicle id="35" depart="140.00" departSpeed="max">
        <route edges="-E11 -E3 -E2 E9"/>
    </vehicle>
    <vehicle id="36" depart="144.00" departSpeed="max">
        <route edges="-E1 E7 E3 -E8"/>
    </vehicle>
    <vehicle id="37" depart="148.00" departSpeed="max">
        <route edges="E3 -E3 -E7"/>
    </vehicle>
    <vehicle id="38" depart="152.00" departSpeed="max">
        <route edges="E9 E4 E5 -E11 -E3"/>
    </vehicle>
    <vehicle id="39" depart="156.00" departSpeed="max">
        <route edges="E9 E4 -E10 -E7 E7"/>
    </vehicle>
    <vehicle id="40" depart="160.00" departSpeed="max">
        <route edges="E2 -E7 E7"/>
    </vehicle>
    <vehicle id="41" depart="164.00" departSpeed="max">
        <route edges="-E8 -E1 E7 E10 E5"/>
    </vehicle>
    <vehicle id="42" depart="168.00" departSpeed="max">
        <route edges="E5 -E11 -E3 -E2 -E6 E0"/>
    </vehicle>
    <vehicle id="43" depart="172.00" departSpeed="max">
        <route edges="-E9 E2"/>
    </vehicle>
    <vehicle id="44" depart="176.00" departSpeed="max">
        <route edges="-E7 E1 E8 E11 -E5 -E10"/>
    </vehicle>
    <vehicle id="45" depart="180.00" departSpeed="max">
        <route edges="E3 E11 -E5 -E4"/>
    </vehicle>
    <vehicle id="46" depart="184.00" departSpeed="max">
        <route edges="-E9 E9 E4"/>
    </vehicle>
    <vehicle id="47" depart="188.00" departSpeed="max">
        <route edges="-E2 E2 -E7 -E0"/>
    </vehicle>
    <vehicle id="48" depart="192.00" departSpeed="max">
        <route edges="-E10 E10"/>
    </vehicle>
    <vehicle id="49" depart="196.00" departSpeed="max">
        <route edges="-E6 E0 E7 E10 -E4"/>
    </vehicle>
</routes>
